AK-778_41314653
                    3D
 Structure written by MMmdl.
 47 49  0  0  1  0            999 V2000
    4.8120    2.7840    9.0840 C   0  0  1  0  0  0
    4.2300    1.8790    7.9880 C   0  0  0  0  0  0
    4.4170    4.1720    8.6400 C   0  0  0  0  0  0
    3.2900    2.7640    7.1540 N   0  3  1  0  0  0
    3.6770    4.1540    7.4620 C   0  0  0  0  0  0
    4.1900    2.2860   10.4230 C   0  0  0  0  0  0
    4.5610    3.0510   11.7110 C   0  0  0  0  0  0
    3.4460    3.6360   12.5490 C   0  0  0  0  0  0
    3.6370    4.7460   13.4090 C   0  0  0  0  0  0
    3.3300    5.3190    6.7880 C   0  0  0  0  0  0
    4.7730    5.4070    9.1860 C   0  0  0  0  0  0
    4.4370    0.6780    7.8290 O   0  0  0  0  0  0
    2.1740    3.0310   12.5300 C   0  0  0  0  0  0
    2.5630    5.2440   14.1580 C   0  0  0  0  0  0
    5.7550    3.2260   11.9470 O   0  0  0  0  0  0
    6.2210    2.6580    9.1150 O   0  0  0  0  0  0
    3.2470    2.3450    5.6690 C   0  0  0  0  0  0
    2.3750    1.1170    5.4780 C   0  0  0  0  0  0
    2.8370   -0.1090    5.1880 C   0  0  0  0  0  0
    4.3820    6.5870    8.5510 C   0  0  0  0  0  0
    3.6600    6.5450    7.3560 C   0  0  0  0  0  0
    1.1150    3.5400   13.2780 C   0  0  0  0  0  0
    1.3000    4.6580   14.0860 C   0  0  0  0  0  0
    4.8370    8.2580    9.3180 Br  0  0  0  0  0  0
    4.9820    5.4510   13.5710 C   0  0  0  0  0  0
    0.1430    5.2220   14.8920 C   0  0  0  0  0  0
    3.1110    2.2670   10.3000 H   0  0  0  0  0  0
    4.4910    1.2510   10.5950 H   0  0  0  0  0  0
    2.8370    5.3000    5.8330 H   0  0  0  0  0  0
    5.3680    5.4590   10.0860 H   0  0  0  0  0  0
    1.9710    2.1430   11.9510 H   0  0  0  0  0  0
    2.7040    6.1000   14.8010 H   0  0  0  0  0  0
    4.2820    2.1850    5.3590 H   0  0  0  0  0  0
    2.8370    3.1780    5.1000 H   0  0  0  0  0  0
    1.3080    1.2590    5.5880 H   0  0  0  0  0  0
    3.8940   -0.3050    5.0660 H   0  0  0  0  0  0
    2.1600   -0.9420    5.0780 H   0  0  0  0  0  0
    3.3860    7.4580    6.8490 H   0  0  0  0  0  0
    0.1490    3.0580   13.2320 H   0  0  0  0  0  0
    5.3170    5.8690   12.6210 H   0  0  0  0  0  0
    5.7400    4.7570   13.9360 H   0  0  0  0  0  0
    4.9370    6.2580   14.2970 H   0  0  0  0  0  0
    0.2520    6.2970   15.0420 H   0  0  0  0  0  0
    0.0950    4.7450   15.8720 H   0  0  0  0  0  0
   -0.8100    5.0580   14.3880 H   0  0  0  0  0  0
    2.3610    2.6090    7.5170 H   0  0  0  0  0  0
    6.4370    1.7040    9.1880 H   0  0  0  0  0  0
  1  2  1  0  0  0
  1  3  1  0  0  0
  1  6  1  0  0  0
  1 16  1  0  0  0
  2  4  1  0  0  0
  2 12  2  0  0  0
  3  5  2  0  0  0
  3 11  1  0  0  0
  4  5  1  0  0  0
  4 17  1  0  0  0
  4 46  1  0  0  0
  5 10  1  0  0  0
  6  7  1  0  0  0
  6 27  1  0  0  0
  6 28  1  0  0  0
  7  8  1  0  0  0
  7 15  2  0  0  0
  8  9  2  0  0  0
  8 13  1  0  0  0
  9 14  1  0  0  0
  9 25  1  0  0  0
 10 21  2  0  0  0
 10 29  1  0  0  0
 11 20  2  0  0  0
 11 30  1  0  0  0
 13 22  2  0  0  0
 13 31  1  0  0  0
 14 23  2  0  0  0
 14 32  1  0  0  0
 16 47  1  0  0  0
 17 18  1  0  0  0
 17 33  1  0  0  0
 17 34  1  0  0  0
 18 19  2  0  0  0
 18 35  1  0  0  0
 19 36  1  0  0  0
 19 37  1  0  0  0
 20 21  1  0  0  0
 20 24  1  0  0  0
 21 38  1  0  0  0
 22 23  1  0  0  0
 22 39  1  0  0  0
 23 26  1  0  0  0
 25 40  1  0  0  0
 25 41  1  0  0  0
 25 42  1  0  0  0
 26 43  1  0  0  0
 26 44  1  0  0  0
 26 45  1  0  0  0
M  CHG  1   4   1
M  END
> <s_m_entry_id>
120

> <s_m_entry_name>
AK-778_41314653.1

> <s_pdb_PDB_TITLE>
1-allyl-5-bromo-3-[2-(2,4-dimethylphenyl)-2-oxoethyl]-3-hydr oxy-1,3-dihydro-2H-indol-2-one

> <i_pdb_PDB_Model>
1

> <s_pdb_PDB_format_version>
3.0

> <s_m_Source_Path>
D:\zhshao\MMPBSA\PB_50result

> <s_m_Source_File>
AK-778_41314653.pdb

> <i_m_Source_File_Index>
1

> <s_m_subgroupid>
group-PB_501

> <s_m_subgroup_title>
group-PB_50

> <b_m_subgroup_collapsed>
0

$$$$
