AO-080_41280531
                    3D
 Structure written by MMmdl.
 53 56  0  0  1  0            999 V2000
    4.6860    3.0710    8.8030 N   0  3  0  0  0  0
    4.1540    2.3120    7.6410 C   0  0  0  0  0  0
    4.4210    4.4820    8.4990 C   0  0  0  0  0  0
    3.5080    3.1960    6.7880 C   0  0  0  0  0  0
    3.6920    4.5570    7.3210 C   0  0  0  0  0  0
    4.1080    2.6520   10.1770 C   0  0  0  0  0  0
    4.9130    1.4640   10.7040 C   0  0  1  0  0  0
    4.2480   -0.6550   11.9930 N   0  3  0  0  0  0
    4.2860    0.9580    7.3350 C   0  0  0  0  0  0
    4.8320    5.6030    9.2210 C   0  0  0  0  0  0
    3.3410    5.8210    6.8500 C   0  0  0  0  0  0
    2.9110    2.6910    5.6250 C   0  0  0  0  0  0
    6.2700    1.8580   10.7880 O   0  0  0  0  0  0
    6.7550   -2.7600   13.9340 C   0  0  0  0  0  0
    6.5880   -1.4950   13.4180 O   0  0  0  0  0  0
    4.4500    0.8810   12.0570 C   0  0  0  0  0  0
    5.3600   -1.5220   11.3500 C   0  0  0  0  0  0
    6.7210   -1.2770   12.0200 C   0  0  0  0  0  0
    6.6480   -2.8610   15.3190 C   0  0  0  0  0  0
    7.0260   -3.9090   13.1730 C   0  0  0  0  0  0
    3.6760    6.9580    7.5880 C   0  0  0  0  0  0
    3.7150    0.4860    6.1570 C   0  0  0  0  0  0
    4.4370    6.8580    8.7560 C   0  0  0  0  0  0
    3.0160    1.3380    5.3110 C   0  0  0  0  0  0
    6.8370   -4.0830   15.9480 C   0  0  0  0  0  0
    7.2370   -5.1290   13.8030 C   0  0  0  0  0  0
    7.1620   -5.2040   15.1880 C   0  0  0  0  0  0
    4.1980    3.5090   10.8460 H   0  0  0  0  0  0
    3.0520    2.4370   10.0090 H   0  0  0  0  0  0
    4.8370    0.6890    9.9550 H   0  0  0  0  0  0
    4.8370    0.2570    7.9400 H   0  0  0  0  0  0
    5.4230    5.5220   10.1210 H   0  0  0  0  0  0
    2.8370    5.9440    5.9060 H   0  0  0  0  0  0
    2.4370    3.3410    4.9070 H   0  0  0  0  0  0
    5.1730    1.0430   12.8610 H   0  0  0  0  0  0
    3.4880    1.2770   12.3880 H   0  0  0  0  0  0
    5.0150   -2.5420   11.5100 H   0  0  0  0  0  0
    5.3750   -1.3420   10.2770 H   0  0  0  0  0  0
    7.5220   -1.8550   11.5580 H   0  0  0  0  0  0
    7.0320   -0.2440   11.8970 H   0  0  0  0  0  0
    6.4430   -1.9800   15.9110 H   0  0  0  0  0  0
    7.1010   -3.8790   12.0970 H   0  0  0  0  0  0
    3.3750    7.9200    7.2170 H   0  0  0  0  0  0
    3.8340   -0.5420    5.8760 H   0  0  0  0  0  0
    4.7190    7.7510    9.2950 H   0  0  0  0  0  0
    2.6040    0.9520    4.3920 H   0  0  0  0  0  0
    6.7760   -4.1420   17.0240 H   0  0  0  0  0  0
    7.4760   -6.0090   13.2240 H   0  0  0  0  0  0
    7.3500   -6.1420   15.6850 H   0  0  0  0  0  0
    5.6870    2.9320    8.8590 H   0  0  0  0  0  0
    4.1300   -0.9800   12.9440 H   0  0  0  0  0  0
    3.3820   -0.8440   11.5070 H   0  0  0  0  0  0
    6.7590    1.2410   10.2010 H   0  0  0  0  0  0
  1  2  1  0  0  0
  1  3  1  0  0  0
  1  6  1  0  0  0
  1 50  1  0  0  0
  2  4  2  0  0  0
  2  9  1  0  0  0
  3  5  2  0  0  0
  3 10  1  0  0  0
  4  5  1  0  0  0
  4 12  1  0  0  0
  5 11  1  0  0  0
  6  7  1  0  0  0
  6 28  1  0  0  0
  6 29  1  0  0  0
  7 13  1  0  0  0
  7 16  1  0  0  0
  7 30  1  0  0  0
  8 16  1  0  0  0
  8 17  1  0  0  0
  8 51  1  0  0  0
  8 52  1  0  0  0
  9 22  2  0  0  0
  9 31  1  0  0  0
 10 23  2  0  0  0
 10 32  1  0  0  0
 11 21  2  0  0  0
 11 33  1  0  0  0
 12 24  2  0  0  0
 12 34  1  0  0  0
 13 53  1  0  0  0
 14 15  1  0  0  0
 14 19  2  0  0  0
 14 20  1  0  0  0
 15 18  1  0  0  0
 16 35  1  0  0  0
 16 36  1  0  0  0
 17 18  1  0  0  0
 17 37  1  0  0  0
 17 38  1  0  0  0
 18 39  1  0  0  0
 18 40  1  0  0  0
 19 25  1  0  0  0
 19 41  1  0  0  0
 20 26  2  0  0  0
 20 42  1  0  0  0
 21 23  1  0  0  0
 21 43  1  0  0  0
 22 24  1  0  0  0
 22 44  1  0  0  0
 23 45  1  0  0  0
 24 46  1  0  0  0
 25 27  2  0  0  0
 25 47  1  0  0  0
 26 27  1  0  0  0
 26 48  1  0  0  0
 27 49  1  0  0  0
M  CHG  2   1   1   8   1
M  END
> <i_m_stars>
1

> <s_m_entry_id>
40

> <s_m_entry_name>
AO-080_41280531.1

> <s_pdb_PDB_TITLE>
1-(9H-carbazol-9-yl)-3-[(2-phenoxyethyl)amino]-2-propanol

> <i_pdb_PDB_Model>
1

> <s_pdb_PDB_format_version>
3.0

> <s_m_Source_Path>
D:\zhshao\MMPBSA\intersection

> <s_m_Source_File>
AO-080_41280531.pdb

> <i_m_Source_File_Index>
1

> <s_m_subgroupid>
group-38intersection

> <s_m_subgroup_title>
group-38intersection

> <b_m_subgroup_collapsed>
0

$$$$
